Version 4
SHEET 1 1780 948
WIRE -672 -416 -672 -432
WIRE -400 -384 -400 -432
WIRE -400 -384 -464 -384
WIRE -464 -336 -464 -384
WIRE -400 -336 -400 -384
WIRE -672 -304 -672 -320
WIRE -624 -304 -624 -368
WIRE -624 -304 -672 -304
WIRE -672 -272 -672 -304
WIRE -544 -272 -672 -272
WIRE -672 -256 -672 -272
WIRE 48 -224 -320 -224
WIRE 480 -224 48 -224
WIRE -672 -144 -672 -176
WIRE -576 -144 -672 -144
WIRE -544 -144 -576 -144
WIRE -224 -128 -320 -128
WIRE -672 -96 -672 -144
WIRE -224 -96 -224 -128
WIRE -576 -48 -576 -144
WIRE -496 -48 -496 -80
WIRE -496 -48 -576 -48
WIRE -64 -16 -64 -48
WIRE -672 0 -672 -32
WIRE -400 0 -400 -80
WIRE -224 0 -224 -32
WIRE 192 0 192 -48
WIRE 192 0 128 0
WIRE 128 48 128 0
WIRE 192 48 192 0
WIRE -64 112 -64 64
WIRE 48 112 -64 112
WIRE -64 128 -64 112
WIRE 480 128 480 -224
WIRE 496 128 480 128
WIRE 640 144 608 144
WIRE 656 144 640 144
WIRE 672 144 656 144
WIRE 800 144 784 144
WIRE 928 144 912 144
WIRE 976 144 928 144
WIRE 1040 144 976 144
WIRE 1216 144 1104 144
WIRE 1296 144 1216 144
WIRE 1680 144 1600 144
WIRE 336 160 272 160
WIRE 480 160 464 160
WIRE 496 160 480 160
WIRE -400 208 -400 128
WIRE 1296 224 1296 144
WIRE 1296 224 1232 224
WIRE 1680 224 1680 144
WIRE 1680 224 1616 224
WIRE -64 240 -64 208
WIRE 16 240 -64 240
WIRE 48 240 16 240
WIRE 1296 240 1296 224
WIRE 1680 240 1680 224
WIRE 368 256 272 256
WIRE 656 272 656 144
WIRE 672 272 656 272
WIRE 800 272 784 272
WIRE 928 272 928 144
WIRE 928 272 912 272
WIRE -64 288 -64 240
WIRE 368 288 368 256
WIRE 1616 320 1616 224
WIRE 16 336 16 240
WIRE 96 336 96 304
WIRE 96 336 16 336
WIRE 1232 336 1232 224
WIRE 1296 336 1296 320
WIRE -400 352 -400 288
WIRE -64 384 -64 352
WIRE 192 384 192 304
WIRE 368 384 368 352
WIRE 1680 400 1680 384
WIRE 1296 432 1296 416
WIRE 656 512 656 272
WIRE 672 512 656 512
WIRE 816 512 800 512
WIRE 1232 512 1232 400
WIRE 1296 512 1296 496
WIRE 1296 512 1232 512
WIRE 1616 512 1616 384
WIRE 1680 512 1680 480
WIRE 1680 512 1616 512
WIRE 816 576 816 512
WIRE 1216 576 816 576
WIRE 1296 576 1296 512
WIRE 1296 576 1216 576
WIRE 1680 576 1680 512
WIRE 1680 576 1600 576
WIRE 656 640 656 512
WIRE 672 640 656 640
WIRE 816 640 816 576
WIRE 816 640 800 640
FLAG 192 384 0
FLAG 368 384 0
FLAG -64 384 0
FLAG 192 -48 +V
FLAG -64 -48 +V
FLAG -400 128 +V
FLAG -400 352 0
FLAG -400 0 0
FLAG -224 0 0
FLAG -672 0 0
FLAG -400 -432 +V
FLAG -672 -432 +V
FLAG 48 -224 A
FLAG 1216 144 +Tx
FLAG 1216 576 -Tx
FLAG 480 160 B
FLAG 640 144 C
FLAG 976 144 D
SYMBOL NE555_ckh 160 176 R0
SYMATTR InstName U1
SYMBOL res -80 -32 R0
SYMATTR InstName R1
SYMATTR Value 2Meg
SYMBOL res -80 112 R0
SYMATTR InstName R2
SYMATTR Value 8.2k
SYMBOL cap -80 288 R0
WINDOW 3 24 62 Left 2
SYMATTR Value 0.047µ
SYMATTR InstName C1
SYMBOL cap 352 288 R0
SYMATTR InstName C2
SYMATTR Value 0.1µ
SYMBOL voltage -400 192 R0
SYMATTR InstName V1
SYMATTR Value +12V
SYMBOL NE555_ckh -432 -208 R0
SYMATTR InstName U2
SYMBOL res -688 -272 R0
SYMATTR InstName R4
SYMATTR Value 160k
SYMBOL cap -688 -96 R0
SYMATTR InstName C3
SYMATTR Value 100p
SYMBOL cap -240 -96 R0
SYMATTR InstName C4
SYMATTR Value 0.1µ
SYMBOL Digital\\CD4000\\CD4049B 720 576 R0
WINDOW 0 -16 19 Left 1
WINDOW 3 -28 106 Left 1
SYMATTR InstName U6
SYMATTR SpiceLine VDD=12  SPEED=1.0  TRIPDT=5e-9
SYMBOL res 1280 224 R0
WINDOW 3 33 76 Left 2
SYMATTR InstName Rm
SYMATTR Value {Rm}
SYMBOL ind2 1280 320 R0
SYMATTR InstName Lm
SYMATTR Value {Lm}
SYMATTR Type ind
SYMBOL cap 1280 432 R0
WINDOW 3 34 54 Left 2
SYMATTR InstName Cm
SYMATTR Value {Cm}
SYMBOL cap 1248 336 M0
WINDOW 3 20 59 Left 2
SYMATTR InstName Co
SYMATTR Value {Co}
SYMBOL pot_ckh -688 -416 R0
WINDOW 0 41 -12 Left 2
WINDOW 39 42 16 Left 2
SYMATTR InstName VR1
SYMATTR SpiceLine R=50k, wiper=0.5
SYMBOL Digital\\CD4000\\CD4049B 720 448 R0
WINDOW 0 -16 19 Left 1
WINDOW 3 -28 106 Left 1
SYMATTR InstName U4
SYMATTR SpiceLine VDD=12  SPEED=1.0  TRIPDT=5e-9
SYMBOL Digital\\CD4000\\CD4049B 720 208 R0
WINDOW 0 -16 19 Left 1
WINDOW 3 -28 106 Left 1
SYMATTR InstName U5
SYMATTR SpiceLine VDD=12  SPEED=1.0  TRIPDT=5e-9
SYMBOL Digital\\CD4000\\CD4049B 832 208 R0
WINDOW 0 -16 19 Left 1
WINDOW 3 -28 106 Left 1
SYMATTR InstName U7
SYMATTR SpiceLine VDD=12  SPEED=1.0  TRIPDT=5e-9
SYMBOL Digital\\CD4000\\CD4049B 720 80 R0
WINDOW 0 -16 19 Left 1
WINDOW 3 -28 106 Left 1
SYMATTR InstName U8
SYMATTR SpiceLine VDD=12  SPEED=1.0  TRIPDT=5e-9
SYMBOL Digital\\CD4000\\CD4049B 832 80 R0
WINDOW 0 -16 19 Left 1
WINDOW 3 -28 106 Left 1
SYMATTR InstName U9
SYMATTR SpiceLine VDD=12  SPEED=1.0  TRIPDT=5e-9
SYMBOL Digital\\CD4000\\CD4049B 384 96 R0
WINDOW 0 -16 19 Left 1
WINDOW 3 -28 106 Left 1
SYMATTR InstName U3
SYMATTR SpiceLine VDD=12  SPEED=1.0  TRIPDT=5e-9
SYMBOL Digital\\CD4000\\CD40106B 128 496 R0
SYMATTR InstName U10
SYMBOL Digital\\CD4000\\CD4081B 544 80 R0
WINDOW 0 -16 16 Left 1
WINDOW 3 -32 112 Left 1
SYMATTR InstName U12
SYMATTR SpiceLine VDD=12  SPEED=1.0  TRIPDT=5e-9
SYMBOL res 1664 224 R0
SYMATTR InstName Rm1
SYMATTR Value 340
SYMBOL ind2 1664 384 R0
SYMATTR InstName Lm1
SYMATTR Value 48mH
SYMATTR Type ind
SYMBOL cap 1664 320 R0
SYMATTR InstName Cm1
SYMATTR Value 300pF
SYMBOL cap 1632 320 M0
SYMATTR InstName Co1
SYMATTR Value 2150pF
SYMBOL cap 1040 160 R270
WINDOW 0 32 32 VTop 2
WINDOW 3 0 32 VBottom 2
SYMATTR InstName C5
SYMATTR Value {Cc}
TEXT -464 496 Left 2 ;.tran 200m
TEXT 16 96 Left 2 ;7
TEXT 16 216 Left 2 ;6
TEXT 104 320 Left 2 ;2
TEXT 200 320 Left 2 ;1
TEXT 280 240 Left 2 ;5
TEXT 280 144 Left 2 ;3
TEXT 200 32 Left 2 ;8
TEXT 136 32 Left 2 ;4
TEXT -576 -288 Left 2 ;7
TEXT -576 -168 Left 2 ;6
TEXT -488 -64 Left 2 ;2
TEXT -392 -64 Left 2 ;1
TEXT -312 -144 Left 2 ;5
TEXT -312 -240 Left 2 ;3
TEXT -392 -352 Left 2 ;8
TEXT -456 -352 Left 2 ;4
TEXT -464 464 Left 2 !.include 74HC.lib
TEXT -88 -240 Left 2 ;40kHz
TEXT 424 184 Left 2 ;15Hz
TEXT -728 -368 Left 2 ;Ra
TEXT -728 -208 Left 2 ;Rb
TEXT -720 -64 Left 2 ;C
TEXT -120 16 Left 2 ;Ra
TEXT -120 176 Left 2 ;Rb
TEXT -112 320 Left 2 ;C
TEXT -688 472 Left 2 ;150k+10k
TEXT 688 728 Left 2 !.include cd4000.lib
TEXT 688 40 Left 2 ;4584
TEXT 528 240 Left 2 ;4011
TEXT -464 528 Left 2 !.tran 100m
TEXT 968 208 Left 2 !.param Cc=100n
TEXT 984 56 Left 2 ;.step param Cc list 10n 100n 330n 1000n
TEXT 1304 152 Left 2 ;Ultrasonic \nTransmitter
TEXT 1136 672 Left 2 !.param Rm=391\n.param Lm=73.3mH\n.param Cm=234pF\n.param Co=2121pF
TEXT 1144 832 Left 2 ;.param Rm=\n.param Lm=\n.param Cm=\n.param Co=
TEXT 688 368 Left 2 ;CMOS IC Vcc=+12V
RECTANGLE Normal 1392 528 1168 208 2
RECTANGLE Normal 1776 528 1552 208 2
RECTANGLE Normal 1392 944 1296 816 2
