Version 4
SHEET 1 1416 2120
WIRE -16 -256 -16 -288
WIRE -16 -256 -272 -256
WIRE 224 -256 -16 -256
WIRE 960 -256 224 -256
WIRE 1072 -256 960 -256
WIRE 960 -208 960 -256
WIRE 1072 -208 1072 -256
WIRE 224 -144 224 -256
WIRE -272 -128 -272 -256
WIRE -16 -112 -16 -256
WIRE 960 -80 960 -144
WIRE 1072 -80 1072 -128
WIRE 96 -16 96 -32
WIRE 224 -16 224 -32
WIRE 272 -16 224 -16
WIRE -16 0 -16 -32
WIRE -16 0 -128 0
WIRE 64 0 -16 0
WIRE 272 16 128 16
WIRE 416 16 384 16
WIRE 448 16 416 16
WIRE 576 16 560 16
WIRE 624 16 576 16
WIRE 816 16 736 16
WIRE -272 32 -272 -48
WIRE -272 32 -352 32
WIRE 64 32 -272 32
WIRE 272 48 240 48
WIRE -16 64 -16 0
WIRE 96 64 96 48
WIRE -272 80 -272 32
WIRE 240 80 240 48
WIRE 416 80 416 16
WIRE 240 128 416 80
WIRE 416 144 240 80
WIRE 576 144 576 16
WIRE 96 160 96 144
WIRE 240 160 240 128
WIRE 272 160 240 160
WIRE 64 176 -112 176
WIRE 416 176 416 144
WIRE 416 176 384 176
WIRE -272 192 -272 144
WIRE 272 192 128 192
WIRE -16 208 -16 144
WIRE 64 208 -16 208
WIRE 96 240 96 224
WIRE -352 304 -352 32
WIRE 128 304 -352 304
WIRE -16 320 -16 208
WIRE 128 320 128 304
WIRE -608 336 -704 336
WIRE 576 336 576 224
WIRE 576 336 176 336
WIRE -704 384 -704 336
WIRE -16 448 -16 400
WIRE 128 448 128 416
WIRE 128 448 -16 448
WIRE -704 512 -704 464
WIRE -16 544 -16 448
WIRE -80 816 -80 784
WIRE -80 816 -336 816
WIRE 160 816 -80 816
WIRE -336 864 -336 816
WIRE -336 992 -336 944
WIRE 400 992 -336 992
WIRE -336 1040 -336 992
WIRE -80 1040 -80 816
WIRE 160 1040 160 816
WIRE 512 1072 448 1072
WIRE 512 1088 512 1072
WIRE 32 1120 0 1120
WIRE 400 1120 400 1088
WIRE 0 1136 0 1120
WIRE 32 1168 32 1120
WIRE 160 1168 160 1152
WIRE 208 1168 160 1168
WIRE -336 1184 -336 1120
WIRE -304 1184 -336 1184
WIRE -240 1184 -304 1184
WIRE 0 1184 -240 1184
WIRE 208 1200 64 1200
WIRE 352 1200 320 1200
WIRE 384 1200 352 1200
WIRE 512 1200 512 1168
WIRE 512 1200 496 1200
WIRE 560 1200 512 1200
WIRE 768 1200 672 1200
WIRE 800 1200 768 1200
WIRE -80 1216 -80 1120
WIRE -80 1216 -176 1216
WIRE 0 1216 -80 1216
WIRE -336 1232 -336 1184
WIRE 208 1232 176 1232
WIRE 768 1232 768 1200
WIRE -80 1248 -80 1216
WIRE 32 1248 32 1232
WIRE 176 1264 176 1232
WIRE 352 1264 352 1200
WIRE 32 1296 0 1296
WIRE 0 1312 0 1296
WIRE 176 1312 352 1264
WIRE -336 1328 -336 1296
WIRE 352 1328 176 1264
WIRE 32 1344 32 1296
WIRE 176 1344 176 1312
WIRE 208 1344 176 1344
WIRE 768 1344 768 1312
WIRE -80 1360 -80 1328
WIRE 0 1360 -80 1360
WIRE 352 1360 352 1328
WIRE 352 1360 320 1360
WIRE 208 1376 64 1376
WIRE -240 1392 -240 1184
WIRE 0 1392 -240 1392
WIRE 32 1424 32 1408
WIRE -80 1440 -80 1360
WIRE -80 1600 -80 1520
FLAG 1072 -80 0
FLAG -16 -288 +V
FLAG 96 64 0
FLAG -16 544 0
FLAG 96 -32 +V
FLAG 96 240 0
FLAG 96 144 +V
FLAG 960 -80 0
FLAG -272 192 0
FLAG -112 176 Trigger
IOPIN -112 176 In
FLAG -704 512 0
FLAG -608 336 Trigger
IOPIN -608 336 Out
FLAG -80 784 +V
FLAG 0 1136 0
FLAG -80 1600 0
FLAG 32 1248 +V
FLAG -336 1328 0
FLAG 400 1120 0
FLAG 768 1344 0
FLAG 800 1200 out
FLAG 0 1312 0
FLAG 32 1424 +V
FLAG -304 1184 Vc
SYMBOL voltage 1072 -224 R0
SYMATTR InstName V1
SYMATTR Value 5V
SYMBOL res -32 304 R0
SYMATTR InstName R1
SYMATTR Value 5k
SYMBOL res -32 -128 R0
SYMATTR InstName R2
SYMATTR Value 5k
SYMBOL res -32 48 R0
SYMATTR InstName R3
SYMATTR Value 5k
SYMBOL CD4000B 320 -64 R0
WINDOW 0 -16 16 Left 2
WINDOW 3 -39 141 Left 2
SYMATTR InstName U1
SYMBOL CD4001B 320 112 R0
WINDOW 0 -15 16 Left 2
WINDOW 3 -36 114 Left 2
SYMATTR InstName U2
SYMBOL CD4049B 496 -48 R0
WINDOW 0 -16 32 Left 2
WINDOW 3 -32 96 Left 2
SYMATTR InstName U3
SYMBOL CD4049B 672 -48 R0
WINDOW 0 -16 32 Left 2
WINDOW 3 -58 108 Left 2
SYMATTR InstName U4
SYMBOL CD4049B 288 -96 R90
WINDOW 0 -20 38 VLeft 2
WINDOW 3 11 -66 VRight 2
SYMATTR InstName U5
SYMBOL res 560 128 R0
SYMATTR InstName R6
SYMATTR Value 2
SYMBOL nmos 176 416 R180
WINDOW 3 -171 34 Left 2
SYMATTR InstName M1
SYMATTR Value AP9465GEM
SYMBOL Comparators\\LT1716 96 16 R0
SYMATTR InstName U6
SYMBOL Comparators\\LT1716 96 192 R0
SYMATTR InstName U7
SYMBOL res -288 -144 R0
SYMATTR InstName R4
SYMATTR Value 10k
SYMBOL cap -288 80 R0
SYMATTR InstName C1
SYMATTR Value 4.7µF
SYMBOL voltage -704 368 R0
WINDOW 123 0 0 Left 0
WINDOW 39 0 0 Left 0
SYMATTR InstName V2
SYMATTR Value PULSE(5 0 1m 10n 10n 0.1m)
SYMBOL res -96 1424 R0
SYMATTR InstName R5
SYMATTR Value 5k
SYMBOL res -96 1024 R0
SYMATTR InstName R7
SYMATTR Value 5k
SYMBOL res -96 1232 R0
SYMATTR InstName R8
SYMATTR Value 5k
SYMBOL CD4000B 256 1120 R0
WINDOW 0 -16 16 Left 2
WINDOW 3 -39 141 Left 2
SYMATTR InstName U8
SYMBOL CD4001B 256 1296 R0
WINDOW 0 -15 16 Left 2
WINDOW 3 -36 114 Left 2
SYMATTR InstName U9
SYMBOL CD4049B 432 1136 R0
WINDOW 0 -16 32 Left 2
WINDOW 3 -35 108 Left 2
SYMATTR InstName U10
SYMBOL CD4049B 608 1136 R0
WINDOW 0 -16 32 Left 2
WINDOW 3 -58 108 Left 2
SYMATTR InstName U11
SYMBOL CD4049B 224 1088 R90
WINDOW 0 -20 38 VLeft 2
WINDOW 3 11 -66 VRight 2
SYMATTR InstName U12
SYMBOL res 496 1072 R0
SYMATTR InstName R9
SYMATTR Value 10
SYMBOL Comparators\\LT1716 32 1200 M180
SYMATTR InstName U13
SYMBOL res -352 848 R0
SYMATTR InstName R10
SYMATTR Value {Ra}
SYMBOL cap -352 1232 R0
SYMATTR InstName C2
SYMATTR Value {C}
SYMBOL res -352 1024 R0
SYMATTR InstName R11
SYMATTR Value {Rb}
SYMBOL nmos 448 992 M0
WINDOW 3 -137 47 Left 2
SYMATTR InstName M3
SYMATTR Value AP9465GEM
SYMBOL res 752 1216 R0
SYMATTR InstName R12
SYMATTR Value 10k
SYMBOL Comparators\\LT1716 32 1376 M180
SYMATTR InstName U14
TEXT 976 -16 Left 2 ;.tran 0 100m 0 1u startup
TEXT -112 16 Left 2 ;6
TEXT -112 160 Left 2 ;2
TEXT -40 512 Left 2 ;1
TEXT -40 -208 Left 2 ;8
TEXT 232 -208 Left 2 ;4
TEXT 760 0 Left 2 ;3
TEXT 80 16 Left 2 ;A
TEXT 80 192 Left 2 ;B
TEXT -192 216 Left 2 ;/Trigger
TEXT -200 56 Left 2 ;Threshold
TEXT 480 544 Left 2 !.include cd4000.lib
TEXT -112 -16 Left 2 ;5
TEXT -112 288 Left 2 ;7
TEXT -200 328 Left 2 ;Discharge
TEXT -16 1608 Left 2 !.tran 0 5m 0 1u startup
TEXT -176 1200 Left 2 ;5
TEXT -176 1376 Left 2 ;2
TEXT -104 1568 Left 2 ;1
TEXT -104 896 Left 2 ;8
TEXT 168 896 Left 2 ;4
TEXT 696 1184 Left 2 ;3
TEXT 16 1200 Left 2 ;A
TEXT -176 1168 Left 2 ;6
TEXT -168 968 Left 2 ;7
TEXT 16 1376 Left 2 ;A
TEXT 424 1448 Left 2 !.param Ra=6.8k\n.param Rb=3.3k\n.param C=0.1uF
RECTANGLE Normal 752 496 -80 -192 2
RECTANGLE Normal 688 1552 -144 912 2
