Version 4
SHEET 1 1860 948
WIRE -656 -416 -656 -432
WIRE -400 -384 -400 -432
WIRE -400 -384 -464 -384
WIRE -464 -336 -464 -384
WIRE -400 -336 -400 -384
WIRE -656 -272 -656 -336
WIRE -544 -272 -656 -272
WIRE -656 -256 -656 -272
WIRE 48 -224 -320 -224
WIRE 480 -224 48 -224
WIRE -656 -144 -656 -176
WIRE -576 -144 -656 -144
WIRE -544 -144 -576 -144
WIRE -224 -128 -320 -128
WIRE -656 -96 -656 -144
WIRE -224 -96 -224 -128
WIRE -576 -48 -576 -144
WIRE -496 -48 -496 -80
WIRE -496 -48 -576 -48
WIRE -64 -16 -64 -48
WIRE -656 0 -656 -32
WIRE -400 0 -400 -80
WIRE -224 0 -224 -32
WIRE 192 0 192 -48
WIRE 192 0 128 0
WIRE 128 48 128 0
WIRE 192 48 192 0
WIRE -64 112 -64 64
WIRE 48 112 -64 112
WIRE -64 128 -64 112
WIRE 480 128 480 -224
WIRE 496 128 480 128
WIRE 624 144 608 144
WIRE 720 144 624 144
WIRE 736 144 720 144
WIRE 752 144 736 144
WIRE 880 144 864 144
WIRE 1008 144 992 144
WIRE 1056 144 1008 144
WIRE 1120 144 1056 144
WIRE 1296 144 1184 144
WIRE 1376 144 1296 144
WIRE 1760 144 1680 144
WIRE 336 160 272 160
WIRE 464 160 448 160
WIRE 496 160 464 160
WIRE -400 208 -400 128
WIRE 1376 224 1376 144
WIRE 1376 224 1312 224
WIRE 1760 224 1760 144
WIRE 1760 224 1696 224
WIRE -64 240 -64 208
WIRE 16 240 -64 240
WIRE 48 240 16 240
WIRE 1376 240 1376 224
WIRE 1760 240 1760 224
WIRE 368 256 272 256
WIRE 736 272 736 144
WIRE 752 272 736 272
WIRE 880 272 864 272
WIRE 1008 272 1008 144
WIRE 1008 272 992 272
WIRE -64 288 -64 240
WIRE 368 288 368 256
WIRE 1696 320 1696 224
WIRE 16 336 16 240
WIRE 96 336 96 304
WIRE 96 336 16 336
WIRE 1312 336 1312 224
WIRE 1376 336 1376 320
WIRE -400 352 -400 288
WIRE -64 384 -64 352
WIRE 192 384 192 304
WIRE 368 384 368 352
WIRE 1760 400 1760 384
WIRE 1376 432 1376 416
WIRE 736 512 736 272
WIRE 752 512 736 512
WIRE 896 512 864 512
WIRE 1312 512 1312 400
WIRE 1376 512 1376 496
WIRE 1376 512 1312 512
WIRE 1696 512 1696 384
WIRE 1760 512 1760 480
WIRE 1760 512 1696 512
WIRE 896 576 896 512
WIRE 1296 576 896 576
WIRE 1376 576 1376 512
WIRE 1376 576 1296 576
WIRE 1760 576 1760 512
WIRE 1760 576 1680 576
WIRE 736 640 736 512
WIRE 752 640 736 640
WIRE 896 640 896 576
WIRE 896 640 864 640
FLAG 192 384 0
FLAG 368 384 0
FLAG -64 384 0
FLAG 192 -48 +V
FLAG -64 -48 +V
FLAG -400 128 +V
FLAG -400 352 0
FLAG -400 0 0
FLAG -224 0 0
FLAG -656 0 0
FLAG -400 -432 +V
FLAG -656 -432 +V
FLAG 48 -224 A
FLAG 464 160 B
FLAG 624 144 out
FLAG 1296 144 +Tx
FLAG 1296 576 -Tx
FLAG 1056 144 D
FLAG 720 144 C
SYMBOL res -80 -32 R0
SYMATTR InstName R1
SYMATTR Value 2Meg
SYMBOL res -80 112 R0
SYMATTR InstName R2
SYMATTR Value 8.2k
SYMBOL cap -80 288 R0
WINDOW 3 24 62 Left 2
SYMATTR Value 0.047µ
SYMATTR InstName C1
SYMBOL cap 352 288 R0
SYMATTR InstName C2
SYMATTR Value 0.1µ
SYMBOL voltage -400 192 R0
SYMATTR InstName V1
SYMATTR Value +12V
SYMBOL res -672 -272 R0
SYMATTR InstName R4
SYMATTR Value 160k
SYMBOL cap -672 -96 R0
SYMATTR InstName C3
SYMATTR Value 100p
SYMBOL cap -240 -96 R0
SYMATTR InstName C4
SYMATTR Value 0.1µ
SYMBOL 74hc04 384 96 R0
SYMATTR InstName U7
SYMATTR SpiceLine VCC=12 SPEED=1.0 TRIPDT=1e-9
SYMBOL 74hc08_ckh 544 80 R0
SYMATTR InstName U8
SYMATTR SpiceLine VCC=12 SPEED=1.0 TRIPDT=1e-9
SYMBOL res -672 -432 R0
SYMATTR InstName R3
SYMATTR Value 50k
SYMBOL NE555_PJH -432 -208 R0
WINDOW 0 -7 -16 Center 2
WINDOW 3 -2 24 Center 2
SYMATTR InstName U1
SYMBOL NE555_PJH 160 176 R0
WINDOW 0 -6 -9 Center 2
WINDOW 3 6 20 Center 2
SYMATTR InstName U2
SYMBOL res 1360 224 R0
WINDOW 3 33 76 Left 2
SYMATTR Value {Rm}
SYMATTR InstName Rm1
SYMBOL ind2 1360 320 R0
SYMATTR InstName Lm1
SYMATTR Value {Lm}
SYMATTR Type ind
SYMBOL cap 1360 432 R0
WINDOW 3 34 54 Left 2
SYMATTR Value {Cm}
SYMATTR InstName Cm1
SYMBOL cap 1328 336 M0
WINDOW 3 20 59 Left 2
SYMATTR Value {Co}
SYMATTR InstName Co1
SYMBOL res 1744 224 R0
SYMATTR InstName Rm2
SYMATTR Value 340
SYMBOL ind2 1744 384 R0
SYMATTR InstName Lm2
SYMATTR Value 48mH
SYMATTR Type ind
SYMBOL cap 1744 320 R0
SYMATTR InstName Cm2
SYMATTR Value 300pF
SYMBOL cap 1712 320 M0
SYMATTR InstName Co2
SYMATTR Value 2150pF
SYMBOL cap 1120 160 R270
WINDOW 0 32 32 VTop 2
WINDOW 3 0 32 VBottom 2
SYMATTR InstName C5
SYMATTR Value {Cc}
SYMBOL CD4049B 800 80 R0
SYMATTR InstName U4
SYMATTR SpiceLine VDD=12 SPEED=1.0 TRIPDT=5e-9
SYMBOL CD4049B 928 80 R0
SYMATTR InstName U3
SYMATTR SpiceLine VDD=12 SPEED=1.0 TRIPDT=5e-9
SYMBOL CD4049B 800 208 R0
SYMATTR InstName U9
SYMATTR SpiceLine VDD=12 SPEED=1.0 TRIPDT=5e-9
SYMBOL CD4049B 928 208 R0
SYMATTR InstName U10
SYMATTR SpiceLine VDD=12 SPEED=1.0 TRIPDT=5e-9
SYMBOL CD4049B 800 448 R0
SYMATTR InstName U11
SYMATTR SpiceLine VDD=12 SPEED=1.0 TRIPDT=5e-9
SYMBOL CD4049B 800 576 R0
SYMATTR InstName U12
SYMATTR SpiceLine VDD=12 SPEED=1.0 TRIPDT=5e-9
TEXT -464 496 Left 2 !.tran 100m
TEXT 16 96 Left 2 ;7
TEXT 16 216 Left 2 ;6
TEXT 104 320 Left 2 ;2
TEXT 200 320 Left 2 ;1
TEXT 280 240 Left 2 ;5
TEXT 280 144 Left 2 ;3
TEXT 200 32 Left 2 ;8
TEXT 136 32 Left 2 ;4
TEXT -576 -288 Left 2 ;7
TEXT -576 -168 Left 2 ;6
TEXT -488 -64 Left 2 ;2
TEXT -392 -64 Left 2 ;1
TEXT -312 -144 Left 2 ;5
TEXT -312 -240 Left 2 ;3
TEXT -392 -352 Left 2 ;8
TEXT -456 -352 Left 2 ;4
TEXT -464 464 Left 2 !.include 74HC.lib
TEXT -88 -240 Left 2 ;40kHz
TEXT 424 184 Left 2 ;15Hz
TEXT -712 -368 Left 2 ;Ra
TEXT -712 -208 Left 2 ;Rb
TEXT -704 -64 Left 2 ;C
TEXT -120 16 Left 2 ;Ra
TEXT -120 176 Left 2 ;Rb
TEXT -112 320 Left 2 ;C
TEXT -688 472 Left 2 ;150k+10k
TEXT 768 728 Left 2 !.include cd4000.lib
TEXT 768 40 Left 2 ;4584
TEXT 1048 208 Left 2 !.param Cc=100n
TEXT 1064 56 Left 2 ;.step param Cc list 10n 100n 330n 1000n
TEXT 1384 152 Left 2 ;Ultrasonic \nTransmitter
TEXT 1216 672 Left 2 !.param Rm=391\n.param Lm=73.3mH\n.param Cm=234pF\n.param Co=2121pF
TEXT 1224 832 Left 2 ;.param Rm=\n.param Lm=\n.param Cm=\n.param Co=
TEXT 768 368 Left 2 ;CMOS IC Vcc=+12V
RECTANGLE Normal 1472 528 1248 208 2
RECTANGLE Normal 1856 528 1632 208 2
RECTANGLE Normal 1472 944 1376 816 2
