Version 4
SHEET 1 940 740
WIRE -256 -128 -256 -208
WIRE -80 -128 -80 -208
WIRE 672 -64 608 -64
WIRE 800 -64 752 -64
WIRE -256 0 -256 -48
WIRE -80 0 -80 -48
WIRE 160 0 96 0
WIRE 320 0 240 0
WIRE 240 80 208 80
WIRE -256 128 -272 128
WIRE -144 128 -256 128
WIRE -32 128 -80 128
WIRE 96 128 96 0
WIRE 96 128 48 128
WIRE 160 128 96 128
WIRE 208 128 208 80
WIRE -272 160 -272 128
WIRE 320 160 320 0
WIRE 320 160 256 160
WIRE 352 160 320 160
WIRE 384 160 352 160
WIRE 496 160 448 160
WIRE 608 160 608 -64
WIRE 608 160 576 160
WIRE 640 160 608 160
WIRE 688 160 688 80
WIRE 160 192 80 192
WIRE 800 192 800 -64
WIRE 800 192 736 192
WIRE 848 192 800 192
WIRE 640 224 560 224
WIRE 208 272 208 192
WIRE -272 288 -272 240
WIRE 688 288 688 224
WIRE -176 368 -176 320
WIRE 80 416 80 192
WIRE 560 416 560 224
WIRE 560 416 80 416
WIRE -176 496 -176 448
WIRE -32 496 -176 496
WIRE 80 496 80 416
WIRE 80 496 -32 496
WIRE -176 560 -176 496
WIRE -32 576 -32 496
WIRE -176 720 -176 640
WIRE -32 720 -32 640
FLAG -272 288 0
FLAG -256 0 0
FLAG -256 -208 +V
FLAG -80 0 0
FLAG -80 -208 -V
FLAG 240 80 +V
FLAG 352 160 out1
FLAG -256 128 Vs
FLAG 208 272 0
FLAG 688 288 0
FLAG 688 80 +V
FLAG 848 192 out2
FLAG -176 720 0
FLAG -176 320 +V
FLAG -32 720 0
SYMBOL RC4558 192 160 R0
WINDOW 0 -31 -67 Bottom 2
WINDOW 3 -41 60 Top 2
SYMATTR InstName U1
SYMBOL res 64 112 R90
WINDOW 0 0 56 VBottom 2
WINDOW 3 32 56 VTop 2
SYMATTR InstName R1
SYMATTR Value 10k
SYMBOL res 256 -16 R90
WINDOW 0 0 56 VBottom 2
WINDOW 3 32 56 VTop 2
SYMATTR InstName R2
SYMATTR Value 1Meg
SYMBOL voltage -272 144 R0
WINDOW 3 -210 59 Left 2
WINDOW 123 0 0 Left 0
WINDOW 39 0 0 Left 0
SYMATTR InstName V1
SYMATTR Value SINE(0 1 100)
SYMBOL voltage -256 -144 R0
WINDOW 3 29 97 Left 2
WINDOW 123 0 0 Left 0
WINDOW 39 0 0 Left 0
SYMATTR InstName V2
SYMATTR Value 12V
SYMBOL voltage -80 -144 R0
WINDOW 3 29 98 Left 2
WINDOW 123 0 0 Left 0
WINDOW 39 0 0 Left 0
SYMATTR InstName V3
SYMATTR Value -12V
SYMBOL cap -80 112 R90
WINDOW 0 0 32 VBottom 2
WINDOW 3 32 32 VTop 2
SYMATTR InstName C1
SYMATTR Value 0.001µ
SYMBOL RC4558 672 192 R0
WINDOW 0 -31 -67 Bottom 2
WINDOW 3 -41 60 Top 2
SYMATTR InstName U2
SYMBOL cap 448 144 R90
WINDOW 0 0 32 VBottom 2
WINDOW 3 32 32 VTop 2
SYMATTR InstName C2
SYMATTR Value 0.001µ
SYMBOL res 592 144 R90
WINDOW 0 0 56 VBottom 2
WINDOW 3 32 56 VTop 2
SYMATTR InstName R3
SYMATTR Value 1k
SYMBOL res 768 -80 R90
WINDOW 0 0 56 VBottom 2
WINDOW 3 32 56 VTop 2
SYMATTR InstName R4
SYMATTR Value 1k
SYMBOL res -192 352 R0
SYMATTR InstName R5
SYMATTR Value 10k
SYMBOL res -192 544 R0
SYMATTR InstName R6
SYMATTR Value 10k
SYMBOL cap -48 576 R0
SYMATTR InstName C3
SYMATTR Value 0.1µ
TEXT -456 296 Left 2 !.tran 30m
