Version 4
SHEET 1 880 748
WIRE 208 0 32 0
WIRE 208 96 208 0
WIRE 32 128 32 0
WIRE 32 272 32 208
WIRE 208 304 208 192
FLAG 32 272 0
FLAG 208 304 0
SYMBOL voltage 32 112 R0
SYMATTR InstName V1
SYMATTR Value 10V
SYMBOL pot_ckh 192 96 R0
SYMATTR InstName X1
TEXT 280 48 Left 2 !.tran 1m
