Version 4
SHEET 1 1504 680
WIRE -320 -448 -464 -448
WIRE -464 -368 -464 -448
WIRE -832 -320 -864 -320
WIRE -864 -272 -864 -320
WIRE 608 -256 608 -272
WIRE 544 -240 544 -272
WIRE -464 -224 -464 -288
WIRE 32 -144 -496 -144
WIRE 208 -144 144 -144
WIRE -864 -128 -864 -192
WIRE 352 -128 320 -128
WIRE 400 -128 352 -128
WIRE 432 -128 400 -128
WIRE 544 -128 544 -176
WIRE 544 -128 496 -128
WIRE 608 -128 608 -176
WIRE 608 -128 544 -128
WIRE 640 -128 608 -128
WIRE 768 -128 752 -128
WIRE 896 -128 880 -128
WIRE -240 -80 -240 -96
WIRE -16 -80 -16 -96
WIRE 208 -64 208 -112
WIRE 352 -64 352 -128
WIRE 208 -16 352 -64
WIRE 352 -16 208 -64
WIRE 112 0 80 0
WIRE -112 16 -112 0
WIRE 208 16 208 -16
WIRE -560 32 -592 32
WIRE -144 32 -560 32
WIRE 352 32 352 -16
WIRE 352 32 320 32
WIRE 400 32 400 -128
WIRE 432 32 400 32
WIRE 544 32 496 32
WIRE 608 32 544 32
WIRE 640 32 608 32
WIRE 768 32 752 32
WIRE 896 32 880 32
WIRE -16 48 -16 0
WIRE -16 48 -80 48
WIRE 80 48 80 0
WIRE 80 48 -16 48
WIRE 208 48 80 48
WIRE -496 64 -496 -144
WIRE -464 64 -496 64
WIRE -368 64 -464 64
WIRE -240 64 -240 0
WIRE -240 64 -304 64
WIRE -208 64 -240 64
WIRE -144 64 -208 64
WIRE -592 80 -592 32
WIRE 608 80 608 32
WIRE 544 96 544 32
WIRE -240 112 -240 64
WIRE -144 112 -240 112
WIRE -112 112 -112 80
WIRE -496 128 -496 64
WIRE -240 144 -240 112
WIRE -144 160 -144 112
WIRE 144 192 0 192
WIRE 288 192 144 192
WIRE 544 192 544 160
WIRE 608 192 608 160
WIRE -592 224 -592 160
WIRE 0 224 0 192
WIRE 144 224 144 192
WIRE 288 224 288 192
WIRE -496 240 -496 208
WIRE -240 256 -240 224
WIRE -144 256 -144 224
WIRE 400 320 400 32
WIRE 416 320 400 320
WIRE 896 336 528 336
WIRE 0 352 0 304
WIRE 16 352 0 352
WIRE 144 352 144 304
WIRE 144 352 128 352
WIRE 160 352 144 352
WIRE 288 352 288 288
WIRE 288 352 272 352
WIRE 416 352 288 352
WIRE 288 432 288 352
WIRE 320 432 288 432
FLAG -592 224 0
FLAG -496 240 0
FLAG -560 32 Vs2
FLAG -464 64 Vs1
FLAG -16 -96 +V
FLAG -112 0 +V
FLAG -112 112 0
FLAG -240 256 0
FLAG -144 256 0
FLAG -208 64 +in
FLAG 112 0 B
IOPIN 112 0 Out
FLAG 608 -272 +V
FLAG 544 -272 +V
FLAG 896 -128 LE
IOPIN 896 -128 Out
FLAG 896 32 RST
IOPIN 896 32 Out
FLAG 544 192 0
FLAG 608 192 0
FLAG 896 336 CLK
IOPIN 896 336 Out
FLAG 320 432 TP2
IOPIN 320 432 Out
FLAG -240 -96 +V
FLAG -864 -128 0
FLAG -832 -320 +V
FLAG -464 -224 0
FLAG -320 -448 Vref
SYMBOL voltage -592 64 R0
WINDOW 3 -118 219 Left 2
WINDOW 123 0 0 Left 0
WINDOW 39 0 0 Left 0
SYMATTR Value PULSE(0 1 5m 1u 1u 0.3m 100m)
SYMATTR InstName V1
SYMBOL voltage -496 112 R0
WINDOW 3 -139 208 Left 2
WINDOW 123 0 0 Left 0
WINDOW 39 0 0 Left 0
SYMATTR Value PULSE(0 12 1m 1u 1u 0.3m 100m)
SYMATTR InstName V2
SYMBOL diode -368 80 R270
WINDOW 0 32 32 VTop 2
WINDOW 3 0 32 VBottom 2
SYMATTR InstName D1
SYMATTR Value 1N4148
SYMBOL res -256 -96 R0
SYMATTR InstName R1
SYMATTR Value 1Meg
SYMBOL res -256 128 R0
SYMATTR InstName R2
SYMATTR Value 47k
SYMBOL cap -160 160 R0
SYMATTR InstName C1
SYMATTR Value 10nF
SYMBOL res -32 -96 R0
SYMATTR InstName R3
SYMATTR Value 10k
SYMBOL cap 496 -144 R90
WINDOW 0 0 32 VBottom 2
WINDOW 3 32 32 VTop 2
SYMATTR InstName C2
SYMATTR Value 0.01µ
SYMBOL diode 560 -176 R180
WINDOW 0 24 64 Left 2
WINDOW 3 44 27 Left 2
SYMATTR InstName D2
SYMATTR Value 1N4148
SYMBOL res 592 -272 R0
SYMATTR InstName R4
SYMATTR Value 10k
SYMBOL cap 496 16 R90
WINDOW 0 0 32 VBottom 2
WINDOW 3 32 32 VTop 2
SYMATTR InstName C3
SYMATTR Value 0.01µ
SYMBOL diode 560 160 R180
WINDOW 0 24 64 Left 2
WINDOW 3 24 0 Left 2
SYMATTR InstName D3
SYMATTR Value 1N4148
SYMBOL res 592 64 R0
SYMATTR InstName R5
SYMATTR Value 10k
SYMBOL res -16 208 R0
SYMATTR InstName R6
SYMATTR Value 10k
SYMBOL cap 272 224 R0
SYMATTR InstName C4
SYMATTR Value 0.0047µ
SYMBOL CD4049B 80 -208 R0
WINDOW 0 -9 33 Left 2
WINDOW 3 -33 104 Left 2
SYMATTR InstName U1
SYMATTR SpiceLine VDD=12  SPEED=1.0  TRIPDT=5e-9
SYMBOL CD4049B 688 -192 R0
WINDOW 0 -9 33 Left 2
WINDOW 3 -33 104 Left 2
SYMATTR InstName U2
SYMATTR SpiceLine VDD=12  SPEED=1.0  TRIPDT=5e-9
SYMBOL CD4049B 688 -32 R0
WINDOW 0 -9 33 Left 2
WINDOW 3 -33 104 Left 2
SYMATTR InstName U3
SYMATTR SpiceLine VDD=12  SPEED=1.0  TRIPDT=5e-9
SYMBOL CD4049B 816 -192 R0
WINDOW 0 -9 33 Left 2
WINDOW 3 -33 104 Left 2
SYMATTR InstName U4
SYMATTR SpiceLine VDD=12  SPEED=1.0  TRIPDT=5e-9
SYMBOL CD4049B 816 -32 R0
WINDOW 0 -9 33 Left 2
WINDOW 3 -33 104 Left 2
SYMATTR InstName U5
SYMATTR SpiceLine VDD=12  SPEED=1.0  TRIPDT=5e-9
SYMBOL CD4011B 256 -192 R0
SYMATTR InstName U6
SYMATTR SpiceLine VDD=12 SPEED=1.0 TRIPDT=5e-9
SYMBOL CD4011B 256 -32 R0
SYMATTR InstName U7
SYMATTR SpiceLine VDD=12 SPEED=1.0 TRIPDT=5e-9
SYMBOL CD4011B 464 272 R0
SYMATTR InstName U8
SYMBOL 74hc14 64 304 R0
SYMATTR InstName U9
SYMBOL 74hc14 208 304 R0
SYMATTR InstName U10
SYMBOL LM358 -112 -16 R0
SYMATTR InstName U11
SYMBOL res 128 208 R0
SYMATTR InstName R7
SYMATTR Value 10k
SYMBOL voltage -864 -288 R0
WINDOW 3 23 100 Left 2
WINDOW 123 0 0 Left 0
WINDOW 39 0 0 Left 0
SYMATTR Value 12V
SYMATTR InstName V3
SYMBOL bv -464 -384 R0
SYMATTR InstName B1
SYMATTR Value V={47k/(1Meg+47k)}*12V
TEXT -88 560 Left 2 !.include lm358.txt
TEXT -88 464 Left 2 !.tran 10ms
TEXT -88 496 Left 2 !.include 74HC.lib
TEXT -88 528 Left 2 !.include cd4000.lib
TEXT 320 376 Left 2 ;15kHz
TEXT 240 -216 Left 2 ;RS Latch
RECTANGLE Normal 384 96 192 -192 2
