Version 4
SHEET 1 1780 948
WIRE -672 -400 -672 -432
WIRE -400 -384 -400 -432
WIRE -400 -384 -464 -384
WIRE -464 -336 -464 -384
WIRE -400 -336 -400 -384
WIRE -672 -272 -672 -320
WIRE -544 -272 -672 -272
WIRE -672 -256 -672 -272
WIRE 48 -224 -320 -224
WIRE 480 -224 48 -224
WIRE -672 -144 -672 -176
WIRE -576 -144 -672 -144
WIRE -544 -144 -576 -144
WIRE -224 -128 -320 -128
WIRE -672 -96 -672 -144
WIRE -224 -96 -224 -128
WIRE -576 -48 -576 -144
WIRE -496 -48 -496 -80
WIRE -496 -48 -576 -48
WIRE -64 -16 -64 -48
WIRE -672 0 -672 -32
WIRE -400 0 -400 -80
WIRE -224 0 -224 -32
WIRE 192 0 192 -48
WIRE 192 0 128 0
WIRE 128 48 128 0
WIRE 192 48 192 0
WIRE -64 112 -64 64
WIRE 48 112 -64 112
WIRE -64 128 -64 112
WIRE 480 128 480 -224
WIRE 496 128 480 128
WIRE 640 144 608 144
WIRE 672 144 640 144
WIRE 336 160 272 160
WIRE 480 160 448 160
WIRE 496 160 480 160
WIRE -400 208 -400 128
WIRE -64 240 -64 208
WIRE 16 240 -64 240
WIRE 48 240 16 240
WIRE 368 256 272 256
WIRE -64 288 -64 240
WIRE 368 288 368 256
WIRE 16 336 16 240
WIRE 96 336 96 304
WIRE 96 336 16 336
WIRE -400 352 -400 288
WIRE -64 384 -64 352
WIRE 192 384 192 304
WIRE 368 384 368 352
FLAG 192 384 0
FLAG 368 384 0
FLAG -64 384 0
FLAG 192 -48 +V
FLAG -64 -48 +V
FLAG -400 128 +V
FLAG -400 352 0
FLAG -400 0 0
FLAG -224 0 0
FLAG -672 0 0
FLAG -400 -432 +V
FLAG -672 -432 +V
FLAG 48 -224 A
FLAG 480 160 B
FLAG 640 144 output
SYMBOL res -80 -32 R0
SYMATTR InstName R1
SYMATTR Value 2Meg
SYMBOL res -80 112 R0
SYMATTR InstName R2
SYMATTR Value 8.2k
SYMBOL cap -80 288 R0
WINDOW 3 24 62 Left 2
SYMATTR Value 0.047µ
SYMATTR InstName C1
SYMBOL cap 352 288 R0
SYMATTR InstName C2
SYMATTR Value 0.1µ
SYMBOL voltage -400 192 R0
SYMATTR InstName V1
SYMATTR Value +12V
SYMBOL res -688 -272 R0
SYMATTR InstName R4
SYMATTR Value 160k
SYMBOL cap -688 -96 R0
SYMATTR InstName C3
SYMATTR Value 100p
SYMBOL cap -240 -96 R0
SYMATTR InstName C4
SYMATTR Value 0.1µ
SYMBOL NE555_PJH -432 -208 R0
WINDOW 0 -79 -174 Center 2
WINDOW 3 -79 -153 Center 2
SYMATTR InstName U11
SYMBOL NE555_PJH 160 176 R0
WINDOW 0 -79 -174 Center 2
WINDOW 3 -79 -153 Center 2
SYMATTR InstName U13
SYMBOL 74hc04 384 96 R0
SYMATTR InstName U14
SYMBOL 74hc08_ckh 544 80 R0
SYMATTR InstName U15
SYMBOL res -688 -416 R0
SYMATTR InstName R3
SYMATTR Value 50k
TEXT 16 96 Left 2 ;7
TEXT 16 216 Left 2 ;6
TEXT 104 320 Left 2 ;2
TEXT 200 320 Left 2 ;1
TEXT 280 240 Left 2 ;5
TEXT 280 144 Left 2 ;3
TEXT 200 32 Left 2 ;8
TEXT 136 32 Left 2 ;4
TEXT -576 -288 Left 2 ;7
TEXT -576 -168 Left 2 ;6
TEXT -488 -64 Left 2 ;2
TEXT -392 -64 Left 2 ;1
TEXT -312 -144 Left 2 ;5
TEXT -312 -240 Left 2 ;3
TEXT -392 -352 Left 2 ;8
TEXT -456 -352 Left 2 ;4
TEXT -464 464 Left 2 !.include 74HC.lib
TEXT -88 -240 Left 2 ;40kHz
TEXT 424 184 Left 2 ;15Hz
TEXT -728 -368 Left 2 ;Ra
TEXT -728 -208 Left 2 ;Rb
TEXT -720 -64 Left 2 ;C
TEXT -120 16 Left 2 ;Ra
TEXT -120 176 Left 2 ;Rb
TEXT -112 320 Left 2 ;C
TEXT -688 472 Left 2 ;150k+10k
TEXT -464 496 Left 2 !.tran 50m
